Version 4
SHEET 1 2304 888
WIRE -880 -160 -880 -240
WIRE -656 -160 -656 -240
WIRE -656 -160 -880 -160
WIRE -432 -160 -432 -240
WIRE -432 -160 -656 -160
WIRE -240 -160 -432 -160
WIRE -208 -160 -208 -240
WIRE -208 -160 -240 -160
WIRE 16 -160 16 -240
WIRE 16 -160 -208 -160
WIRE 240 -160 240 -240
WIRE 240 -160 16 -160
WIRE 464 -160 464 -240
WIRE 464 -160 240 -160
WIRE 688 -160 688 -240
WIRE 688 -160 464 -160
WIRE 928 -160 928 -240
WIRE 928 -160 688 -160
WIRE 1200 -160 1200 -240
WIRE 1200 -160 928 -160
WIRE -816 -112 -816 -240
WIRE -592 -112 -592 -240
WIRE -592 -112 -816 -112
WIRE -368 -112 -368 -240
WIRE -368 -112 -592 -112
WIRE -144 -112 -144 -240
WIRE -144 -112 -368 -112
WIRE -48 -112 -144 -112
WIRE 80 -112 80 -240
WIRE 80 -112 -48 -112
WIRE 304 -112 304 -240
WIRE 304 -112 80 -112
WIRE 528 -112 528 -240
WIRE 528 -112 304 -112
WIRE 752 -112 752 -240
WIRE 752 -112 528 -112
WIRE 992 -112 992 -240
WIRE 992 -112 752 -112
WIRE 1136 -112 1136 -240
WIRE 1136 -112 992 -112
WIRE -688 -64 -864 -64
WIRE -496 -64 -688 -64
WIRE -688 -48 -688 -64
WIRE -688 -48 -720 -48
WIRE -496 -48 -496 -64
WIRE -496 -48 -528 -48
WIRE -240 -48 -240 -160
WIRE -48 -48 -48 -112
WIRE -400 -32 -448 -32
WIRE -240 -16 -240 -48
WIRE -240 -16 -320 -16
WIRE -48 -16 -48 -48
WIRE -48 -16 -128 -16
WIRE -720 0 -720 -48
WIRE -688 0 -720 0
WIRE -528 0 -528 -48
WIRE -496 0 -528 0
WIRE -320 0 -320 -16
WIRE -128 0 -128 -16
WIRE -688 80 -688 48
WIRE -688 80 -720 80
WIRE -496 80 -496 48
WIRE -464 80 -496 80
WIRE -864 96 -864 -64
WIRE -640 96 -640 -32
WIRE -544 96 -640 96
WIRE -720 128 -720 80
WIRE -688 128 -720 128
WIRE -464 128 -464 80
WIRE -464 128 -496 128
WIRE -688 208 -688 176
WIRE -640 208 -640 96
WIRE -640 208 -688 208
WIRE -496 208 -496 176
WIRE -400 208 -400 -32
WIRE -400 208 -496 208
WIRE -688 240 -688 208
WIRE -496 240 -496 208
WIRE -864 352 -864 176
WIRE -688 352 -688 320
WIRE -688 352 -864 352
WIRE -496 352 -496 320
WIRE -496 352 -688 352
WIRE -688 368 -688 352
FLAG -640 208 V1
FLAG -400 208 V2
FLAG -864 -64 VDD
FLAG -240 64 0
FLAG -688 -272 D1
FLAG -464 -272 D2
FLAG -240 -272 D3
FLAG -16 -272 D4
FLAG 208 -272 D5
FLAG 432 -272 D6
FLAG 656 -272 D7
FLAG -688 368 0
FLAG -320 64 0
FLAG -560 -272 D1bar
FLAG -336 -272 D2bar
FLAG -112 -272 D3bar
FLAG 112 -272 D4bar
FLAG 336 -272 D5bar
FLAG 560 -272 D6bar
FLAG 784 -272 D7bar
FLAG -48 64 0
FLAG -48 -48 VP
IOPIN -48 -48 Out
FLAG -128 64 0
FLAG -240 -48 VN
IOPIN -240 -48 Out
FLAG -848 -384 VDD
FLAG -784 -336 V2
FLAG -912 -336 V1
FLAG -912 -272 D0
FLAG -784 -272 D0bar
FLAG 720 -384 VDD
FLAG 496 -384 VDD
FLAG 272 -384 VDD
FLAG 48 -384 VDD
FLAG -176 -384 VDD
FLAG -400 -384 VDD
FLAG -624 -384 VDD
FLAG -688 -336 V1
FLAG -464 -336 V1
FLAG -240 -336 V1
FLAG -16 -336 V1
FLAG 208 -336 V1
FLAG 432 -336 V1
FLAG 656 -336 V1
FLAG -560 -336 V2
FLAG -336 -336 V2
FLAG -112 -336 V2
FLAG 112 -336 V2
FLAG 336 -336 V2
FLAG 560 -336 V2
FLAG 784 -336 V2
FLAG 960 -384 VDD
FLAG 896 -336 V1
FLAG 1024 -336 V2
FLAG 1168 -384 VDD
FLAG 1104 -336 V1
FLAG 1232 -336 V2
FLAG 896 -272 0
FLAG 1104 -272 0
FLAG 1024 -272 1
FLAG 1232 -272 1
FLAG 832 64 D0
FLAG 832 96 D1
FLAG 832 128 D2
FLAG 832 160 D3
FLAG 880 16 D4
FLAG 912 16 D5
FLAG 944 16 D6
FLAG 976 16 D7
FLAG 1024 64 D0BAR
FLAG 1024 96 D1BAR
FLAG 1024 128 D2BAR
FLAG 1024 160 D3BAR
FLAG 880 208 D4BAR
FLAG 912 208 D5BAR
FLAG 944 208 D6BAR
FLAG 976 208 D7BAR
SYMBOL pmos4 -640 48 R180
WINDOW 123 56 50 Left 2
SYMATTR Value2 l={L} w={W/4}
SYMATTR InstName M1
SYMATTR Value ppmos
SYMBOL pmos4 -640 176 R180
WINDOW 123 56 50 Left 2
SYMATTR Value2 l={L} w={W}
SYMATTR InstName M2
SYMATTR Value ppmos
SYMBOL current -688 240 R0
WINDOW 123 0 0 Left 0
WINDOW 39 0 0 Left 0
SYMATTR InstName I1
SYMATTR Value 0.047m
SYMBOL pmos4 -544 176 M180
WINDOW 123 56 50 Left 2
SYMATTR Value2 l={L} w={W}
SYMATTR InstName M3
SYMATTR Value ppmos
SYMBOL pmos4 -448 48 R180
WINDOW 123 56 50 Left 2
SYMATTR Value2 l={L} w={W}
SYMATTR InstName M4
SYMATTR Value ppmos
SYMBOL current -496 240 R0
WINDOW 123 0 0 Left 0
WINDOW 39 0 0 Left 0
SYMATTR InstName I2
SYMATTR Value 0.047m
SYMBOL voltage -864 80 R0
WINDOW 123 0 0 Left 0
WINDOW 39 0 0 Left 0
WINDOW 0 -65 11 Left 2
WINDOW 3 -42 104 Left 2
SYMATTR InstName VDD1
SYMATTR Value 1.2
SYMBOL res -256 -32 R0
SYMATTR InstName R1
SYMATTR Value {R}
SYMBOL cap -336 0 R0
WINDOW 3 31 46 Left 2
SYMATTR Value {C}
SYMATTR InstName C1
SYMBOL res -64 -32 R0
SYMATTR InstName R2
SYMATTR Value {R}
SYMBOL cap -144 0 R0
WINDOW 3 27 50 Left 2
SYMATTR Value {C}
SYMATTR InstName C2
SYMBOL Mysym\\8BIT_SEQ_PULSE 896 96 R0
SYMATTR InstName X11
SYMATTR SpiceLine VIN=-1 VON=1 TD=1M TRISE=1N
SYMBOL Mysym\\VCCS_DIFFSW -800 -320 R0
WINDOW 39 -120 96 Left 2
SYMATTR InstName X1
SYMATTR SpiceLine L={L} W={W} M=1
SYMBOL Mysym\\VCCS_DIFFSW -576 -320 R0
WINDOW 39 -121 96 Left 2
SYMATTR InstName X2
SYMATTR SpiceLine L={L} W={W} M=2
SYMBOL Mysym\\VCCS_DIFFSW -352 -320 R0
WINDOW 39 -127 92 Left 2
SYMATTR InstName X3
SYMATTR SpiceLine L={L} W={W} M=4
SYMBOL Mysym\\VCCS_DIFFSW -128 -320 R0
WINDOW 39 -126 88 Left 2
SYMATTR InstName X4
SYMATTR SpiceLine L={L} W={W} M=8
SYMBOL Mysym\\VCCS_DIFFSW 96 -320 R0
WINDOW 39 -118 87 Left 2
SYMATTR InstName X5
SYMATTR SpiceLine L={L} W={W} M=16
SYMBOL Mysym\\VCCS_DIFFSW 320 -320 R0
WINDOW 39 -131 88 Left 2
SYMATTR InstName X6
SYMATTR SpiceLine L={L} W={W} M=32
SYMBOL Mysym\\VCCS_DIFFSW 544 -320 R0
WINDOW 39 -128 87 Left 2
SYMATTR InstName X7
SYMATTR SpiceLine L={L} W={W} M=64
SYMBOL Mysym\\VCCS_DIFFSW 768 -320 R0
WINDOW 39 -118 85 Left 2
SYMATTR InstName X8
SYMATTR SpiceLine L={L} W={W} M=128
SYMBOL Mysym\\VCCS_DIFFSW 1008 -320 R0
WINDOW 39 -118 90 Left 2
SYMATTR InstName X9
SYMATTR SpiceLine L={L} W={W} M=1
SYMBOL Mysym\\VCCS_DIFFSW 1216 -320 R0
WINDOW 39 -117 92 Left 2
SYMATTR InstName X10
SYMATTR SpiceLine L={L} W={W} M=1
TEXT 96 48 Left 2 !.INCLUDE C:\\Program Files\\LTC\\LTspiceXVII\\lib\\sym\\65nm.txt
TEXT 96 80 Left 2 !.opt plotwinsize=0
TEXT 96 144 Left 2 !;.OP
TEXT 96 112 Left 2 !.param L=0.3U W=3U R = 50 C=0.01U
TEXT 96 176 Left 2 !.tran 512M
TEXT 96 216 Left 2 !.MODEL SW SW()
TEXT -824 -496 Left 5 ;DAC SOOCH CURRENT SOURCE WITH PMOS SWITCH AND PULSE WAVE (8-BIT DIFFERENTIAL)
